STAMP/00_tool/user/SG_cc/case_sg.m
function mpc = case_sg
%CASE5  Power flow data for modified 5 bus, 5 gen case based on PJM 5-bus system
%   Please see CASEFORMAT for details on the case file format.
%
%   Based on data from ...
%     F.Li and R.Bo, "Small Test Systems for Power System Economic Studies",
%     Proceedings of the 2010 IEEE Power & Energy Society General Meeting

%   Created by Rui Bo in 2006, modified in 2010, 2014.
%   Distributed with permission.

%   MATPOWER

%% MATPOWER Case Format : Version 2
mpc.version = '2';
SG_param
%%-----  Power Flow Data  -----%%
%% system MVA base
mpc.baseMVA = 100;

%% bus data
%	bus_i	type	Pd	Qd	Gs	Bs	area	Vm	Va	baseKV	zone	Vmax	Vmin
%   type (1 = PQ, 2 = PV, 3 = ref, 4 = isolated)
mpc.bus = [
	1	3	0	0   0         0     1	1	0	22	1	1.1	0.9;
	2	1	0	0   Ssg/(Rsnb)/1e6    0     1	1	0	22	1	1.1	0.9;
];

%% generator data
%	bus	Pg	Qg	Qmax	Qmin	Vg	mBase	status	Pmax	Pmin	Pc1	Pc2	Qc1min	Qc1max	Qc2min	Qc2max	ramp_agc	ramp_10	ramp_30	ramp_q	apf
mpc.gen = [
	1	0       0	300	-300	1	100 1	100     0	0	0	0	0	0	0	0	0	0	0	0;
    2	25     10	300	-300	1	100	1	100     0	0	0	0	0	0	0	0	0	0	0	0;
];

%% branch data
%	fbus	tbus	r	x	b	rateA	rateB	rateC	ratio	angle	status	angmin	angmax

mpc.branch = [
    2 1 Rtr*Sb/Ssg Xtr*Sb/Ssg 0 400	400	400	0	0	1	-360	360
];

%%-----  OPF Data  -----%%
%% generator cost data
%	1	startup	shutdown	n	x1	y1	...	xn	yn
%	2	startup	shutdown	n	c(n-1)	...	c0
mpc.gencost = [
	2	0	0	2	14	0;
	2	0	0	2	15	0;
];
